LTspice 26.0.1 for Windows
Circuit: D:\Git Projects\LTspice\CMOS-Inverter-LTspice\simulations\dc_analysis.net
Start Time: Sat Mar 28 16:30:12 2026
solver = Normal
Maximum thread count: 8
tnom = 27
temp = 27
method = trap
Total elapsed time: 0.087 seconds.

Files loaded:
D:\Git Projects\LTspice\CMOS-Inverter-LTspice\simulations\dc_analysis.net
C:\Users\USER\AppData\Local\LTspice\lib\cmp\standard.mos
D:\Git Projects\LTspice\CMOS-Inverter-LTspice\models\nmos_model.inc
D:\Git Projects\LTspice\CMOS-Inverter-LTspice\models\pmos_model.inc

