LTspice 26.0.1 for Windows
Circuit: D:\Git Projects\LTspice\CMOS-Inverter-LTspice\simulations\dc_analysis_power.net
Start Time: Sat Mar 28 23:14:44 2026
solver = Normal
Maximum thread count: 8
tnom = 27
temp = 27
method = trap
Total elapsed time: 0.170 seconds.

Files loaded:
D:\Git Projects\LTspice\CMOS-Inverter-LTspice\simulations\dc_analysis_power.net
C:\Users\USER\AppData\Local\LTspice\lib\cmp\standard.mos
D:\Git Projects\LTspice\CMOS-Inverter-LTspice\models\nmos_model.inc
D:\Git Projects\LTspice\CMOS-Inverter-LTspice\models\pmos_model.inc

v_m: V(Vin) =0.489738723514 at 0.489738727531
gain: d(V(Vout)) =-11.8157267571 at 0.489738727531
voh: MAX(V(Vout))=0.999983489513 FROM 0 TO 1
vol: MIN(V(Vout))=1.95861357497e-05 FROM 0 TO 1
vil: V(Vin) =0.399008598461 at 0.399008608
vih: V(Vin) =0.570306074915 at 0.57030609088
nml: VIL - VOL=0.398989012325
nmh: VOH - VIH=0.429677414598
pavg: AVG(-V(VDD)*I(V2))=1.1430769057e-05 FROM 0 TO 1
