LTspice 26.0.1 for Windows
Circuit: D:\Git Projects\LTspice\CMOS-Inverter-LTspice\simulations\dc_analysis.net
Start Time: Sat Mar 28 23:18:59 2026
solver = Normal
Maximum thread count: 8
tnom = 27
temp = 27
method = trap
Total elapsed time: 0.084 seconds.

Files loaded:
D:\Git Projects\LTspice\CMOS-Inverter-LTspice\simulations\dc_analysis.net
C:\Users\USER\AppData\Local\LTspice\lib\cmp\standard.mos
D:\Git Projects\LTspice\CMOS-Inverter-LTspice\models\nmos_model.inc
D:\Git Projects\LTspice\CMOS-Inverter-LTspice\models\pmos_model.inc

v_m: V(Vin) =0.489736560583 at 0.48973655158
gain: d(V(Vout)) =-11.72542274 at 0.48973655158
voh: MAX(V(Vout))=0.999983489513 FROM 0 TO 1
vol: MIN(V(Vout))=1.95861357497e-05 FROM 0 TO 1
vil: V(Vin) =0.400364320284 at 0.400364314671
vih: V(Vin) =0.570569420356 at 0.570569428052
nml: VIL - VOL=0.400344734148
nmh: VOH - VIH=0.429414069157
