LTspice 26.0.1 for Windows
Circuit: D:\Git Projects\LTspice\CMOS-Inverter-LTspice\simulations\dc_analysis.net
Start Time: Sun Mar 29 11:01:44 2026
solver = Normal
Maximum thread count: 8
tnom = 27
temp = 27
method = trap
.step wp=5e-07
.step wp=1e-06
.step wp=1.2e-06
Total elapsed time: 0.306 seconds.

Files loaded:
D:\Git Projects\LTspice\CMOS-Inverter-LTspice\simulations\dc_analysis.net
C:\Users\USER\AppData\Local\LTspice\lib\cmp\standard.mos
D:\Git Projects\LTspice\CMOS-Inverter-LTspice\models\nmos_model.inc
D:\Git Projects\LTspice\CMOS-Inverter-LTspice\models\pmos_model.inc


Measurement: v_m
  step	V(Vin) 	at
     1	0.448319482609	0.448319492928
     2	0.489736560583	0.48973655158
     3	0.500756098301	0.500756099022

Measurement: gain
  step	d(V(Vout)) 	at
     1	-12.2893512249	0.448319492928
     2	-11.72542274	0.48973655158
     3	-11.6845101118	0.500756099022

Measurement: voh
  step	MAX(V(Vout))	FROM	TO
     1	0.999978542328	0	1
     2	0.999983489513	0	1
     3	0.999984264374	0	1

Measurement: vol
  step	MIN(V(Vout))	FROM	TO
     1	1.01462201201e-05	0	1
     2	1.95861357497e-05	0	1
     3	2.33620066865e-05	0	1

Measurement: vil
  step	V(Vin) 	at
     1	0.350445963341	0.350445968398
     2	0.400364320284	0.400364314671
     3	0.410750444549	0.410750448841

Measurement: vih
  step	V(Vin) 	at
     1	0.52017264573	0.520172664968
     2	0.570569420356	0.570569428052
     3	0.580973082055	0.580973099672

Measurement: nml
  step	VIL - VOL
     1	0.350435817121
     2	0.400344734148
     3	0.410727082542

Measurement: nmh
  step	VOH - VIH
     1	0.479805896598
     2	0.429414069157
     3	0.419011182319
