LTspice 26.0.1 for Windows
Circuit: D:\Git Projects\LTspice\CMOS-Inverter-LTspice\simulations\transient_analysis.net
Start Time: Sat Mar 28 17:30:35 2026
solver = Normal
Maximum thread count: 8
tnom = 27
temp = 27
method = trap
Direct Newton iteration succeeded in finding operating point.
Total elapsed time: 0.101 seconds.

Files loaded:
D:\Git Projects\LTspice\CMOS-Inverter-LTspice\simulations\transient_analysis.net
C:\Users\USER\AppData\Local\LTspice\lib\cmp\standard.mos
D:\Git Projects\LTspice\CMOS-Inverter-LTspice\models\nmos_model.inc
D:\Git Projects\LTspice\CMOS-Inverter-LTspice\models\pmos_model.inc

