LTspice 26.0.1 for Windows
Circuit: D:\Git Projects\LTspice\CMOS-Inverter-LTspice\simulations\varying_load_capacitance.net
Start Time: Sat Mar 28 17:56:06 2026

.step x=5e-13
solver = Normal
Maximum thread count: 8
tnom = 27
temp = 27
method = trap
Direct Newton iteration succeeded in finding operating point.

.step x=1e-12
Direct Newton iteration succeeded in finding operating point.

.step x=1.5e-12
Direct Newton iteration succeeded in finding operating point.
Total elapsed time: 0.324 seconds.

Files loaded:
D:\Git Projects\LTspice\CMOS-Inverter-LTspice\simulations\varying_load_capacitance.net
C:\Users\USER\AppData\Local\LTspice\lib\cmp\standard.mos
D:\Git Projects\LTspice\CMOS-Inverter-LTspice\models\nmos_model.inc
D:\Git Projects\LTspice\CMOS-Inverter-LTspice\models\pmos_model.inc

