LTspice 26.0.1 for Windows
Circuit: D:\Git Projects\MOSFET-Characteristics-LTspice\NMOS\nmos_Id_Vds.net
Start Time: Thu Mar 26 23:06:37 2026
D:\Git Projects\MOSFET-Characteristics-LTspice\models\nmos_model.inc(19): Ignoring unknown model parameter. This may or may not be a problem.
+xw=  0                    binflag=  0
+Dwg= 0.00                 Dwb= 0.00 
                           ^^^^^^^^^^^^^
Ignoring BSIM parameter XL
Ignoring BSIM parameter XW
Ignoring BSIM parameter CTA
Ignoring BSIM parameter CTP
Ignoring BSIM parameter PTA
Ignoring BSIM parameter PTP
solver = Normal
Maximum thread count: 8
tnom = 27
temp = 27
method = trap
Warning: Pd = 0 is less than W.
Warning: Ps = 0 is less than W.
Total elapsed time: 0.119 seconds.

Files loaded:
D:\Git Projects\MOSFET-Characteristics-LTspice\NMOS\nmos_Id_Vds.net
C:\Users\USER\AppData\Local\LTspice\lib\cmp\standard.mos
D:\Git Projects\MOSFET-Characteristics-LTspice\models\nmos_model.inc

